$ =========================================================================
$ cessna210_body.bdf — Cessna 210 Centurion-like GA aircraft with CRUCIFORM
$ BODY PANELS (VLM aero model + body/fuselage representation).
$
$ Refinement of cessna210_aero.bdf:
$   1. Adds a CRUCIFORM body/fuselage representation — sbeam has no slender-body
$      element, so the fuselage is modelled by two crossing flat VLM surfaces:
$        * horizontal body panel (CAERO1 400, XY plane, normal +Z) — carries the
$          body's lift / pitching-moment contribution;
$        * vertical body panel (CAERO1 500, XZ plane, normal +Y) — carries the
$          body's side-force / yawing-moment contribution.
$      The flying surfaces (wing/HTP/VTP) are corrected to spanwise section data;
$      the body panels then absorb the residual so the TOTAL airplane Cm and Cn
$      match CFD/wind tunnel (see sbeam.aero.body_correction and the "Body panels"
$      stage of the viewer Aero-correction tab).
$   2. Fixes the empennage: the vertical tail now INTERSECTS the horizontal tail.
$      The VTP root was at z=0.80 (above the HTP at z=0.70 — a gap); it now extends
$      down to z=0.60 so the surface crosses the HTP plane (a true cruciform tail).
$
$ Coordinate system: X = freestream (forward), Y = starboard, Z = up; origin at nose.
$ Units: SI (m, N, kg, Pa).  Full-span model (SYMXZ=0).
$
$ Splining: the body panels carry SPLINE0 (zero-displacement) cards — body elastic
$ aero effects are negligible, so the panels add no structural deformation and inject
$ no (fictitious) correction load into the fuselage beam.  They still drive the total
$ Cm/Cn and all rigid + restrained derivatives because those integrate every box
$ directly (independent of the spline).  The flying surfaces are not splined here (as
$ in the parent deck this is a steady-VLM / section-correction example, not a SOL 144
$ trim model); a full SOL 144 model would add SPLINE2 for wing/HTP/VTP.
$ =========================================================================
$
SOL 101
$
SUBCASE 1
  TITLE = Cessna 210 1g Static (structure only; aero via Aero tab / SOL 144)
  SPC   = 1
  LOAD  = 10
  DISPLACEMENT = ALL
  SPCFORCE     = ALL
$
BEGIN BULK
$
$ ----------------------------------------------------------------- MATERIAL
$ Aluminium alloy (2024-T3 representative): E=70 GPa, G=26.9 GPa, nu=0.3, rho=2700
MAT1, 1, 7.0e10, 2.69e10, 0.3, 2700.0
$
$ ---------------------------------------------------------------- PROPERTIES
$ PID 1 — fuselage equivalent beam   A=0.020, I1=0.010, I2=0.010, J=0.015
PBAR, 1, 1, 0.020, 0.010, 0.010, 0.015
$ PID 2 — wing spar box              A=0.004, I1=8.0e-4 (flap), I2=8.0e-5 (chord), J=3.0e-4
PBAR, 2, 1, 0.004, 8.0e-4, 8.0e-5, 3.0e-4
$ PID 3 — empennage box (HTP/VTP)    A=0.002, I1=2.0e-4, I2=2.0e-5, J=1.0e-4
PBAR, 3, 1, 0.002, 2.0e-4, 2.0e-5, 1.0e-4
$
$ --------------------------------------------------------------------- NODES
$ Fuselage spine (y=0, z=0.6 cabin centreline)
GRID, 1, , 0.50, 0.0, 0.60
GRID, 2, , 2.70, 0.0, 0.60
GRID, 3, , 5.00, 0.0, 0.60
GRID, 4, , 6.90, 0.0, 0.60
GRID, 5, , 8.00, 0.0, 0.60
$
$ Wing elastic axis (~40% chord, z with 1.5 deg dihedral) — root then stbd/port
GRID, 10, , 2.70, 0.0,  1.250
GRID, 11, , 2.655, 2.80, 1.323
GRID, 12, , 2.610, 5.60, 1.397
GRID, 111, , 2.655, -2.80, 1.323
GRID, 112, , 2.610, -5.60, 1.397
$
$ HTP elastic axis (z=0.70)
GRID, 20, , 7.32, 0.0,   0.70
GRID, 21, , 7.36, 0.865, 0.70
GRID, 22, , 7.40, 1.73,  0.70
GRID, 121, , 7.36, -0.865, 0.70
GRID, 122, , 7.40, -1.73,  0.70
$
$ VTP elastic axis (vertical) — root extended down to z=0.60 (intersects HTP plane)
GRID, 30, , 7.20, 0.0, 0.60
GRID, 31, , 7.36, 0.0, 1.45
GRID, 32, , 7.525, 0.0, 2.30
$
$ ------------------------------------------------------------------ ELEMENTS
$ Fuselage CBARs (along X) — orientation vec (0,1,0)
CBAR, 1, 1, 1, 2, 0.0, 1.0, 0.0
CBAR, 2, 1, 2, 3, 0.0, 1.0, 0.0
CBAR, 3, 1, 3, 4, 0.0, 1.0, 0.0
CBAR, 4, 1, 4, 5, 0.0, 1.0, 0.0
$ Wing root strut (fuselage up to wing EA) — orientation vec (1,0,0)
CBAR, 5, 2, 2, 10, 1.0, 0.0, 0.0
$ Wing CBARs (along Y) — orientation vec (1,0,0)
CBAR, 11, 2, 10, 11, 1.0, 0.0, 0.0
CBAR, 12, 2, 11, 12, 1.0, 0.0, 0.0
CBAR, 111, 2, 10, 111, 1.0, 0.0, 0.0
CBAR, 112, 2, 111, 112, 1.0, 0.0, 0.0
$ Tail struts (fuselage to HTP / VTP roots) — orientation vec (0,1,0)
CBAR, 6, 3, 4, 20, 0.0, 1.0, 0.0
CBAR, 7, 3, 4, 30, 0.0, 1.0, 0.0
$ HTP CBARs (along Y) — orientation vec (1,0,0)
CBAR, 21, 3, 20, 21, 1.0, 0.0, 0.0
CBAR, 22, 3, 21, 22, 1.0, 0.0, 0.0
CBAR, 121, 3, 20, 121, 1.0, 0.0, 0.0
CBAR, 122, 3, 121, 122, 1.0, 0.0, 0.0
$ VTP CBARs (along Z) — orientation vec (0,1,0)
CBAR, 31, 3, 30, 31, 0.0, 1.0, 0.0
CBAR, 32, 3, 31, 32, 0.0, 1.0, 0.0
$
$ --------------------------------------------------------------- CONSTRAINTS
$ Fix all 6 DOFs at the nose reference node (ground/wind-tunnel mount)
SPC1, 1, 123456, 1
$
$ --------------------------------------------------------------------- LOADS
$ 1g body acceleration, -Z
GRAV, 10, 0, 9.81, 0.0, 0.0, -1.0
$
$ ============================================================== AERODYNAMICS
$ Reference geometry (full-span): CREF = wing MAC, BREF = wing span, SREF = wing area.
$ Moments are reported about the origin (RCSID 0).  Field 8 (sbeam extension) is the
$ default Mach for Prandtl-Glauert (0 = incompressible).
AEROS, 0, 0, 1.471, 11.20, 16.24, 0, 0, 0.0
$
$ Aerodynamic panel property (Phase A stub)
PAERO1, 10
$
$ Chordwise NCHORD = 6 (>=2 required for the section-moment correction; >=4
$ recommended for converged pitching moment). Spanwise NSPAN sized for box AR ~1.
$
$ ---- Wing starboard: 16 x 6 = 96 boxes
CAERO1, 1000, 10, 0, 16, 6, 0, 0, 1
+, 2.00, 0.0, 1.250, 1.75, 2.15, 5.60, 1.397, 1.15
$ ---- Wing port: 16 x 6 = 96 boxes
CAERO1, 2000, 10, 0, 16, 6, 0, 0, 1
+, 2.00, 0.0, 1.250, 1.75, 2.15, -5.60, 1.397, 1.15
$
$ ---- HTP starboard: 8 x 6 = 48 boxes
CAERO1, 3000, 10, 0, 8, 6, 0, 0, 1
+, 6.90, 0.0, 0.70, 1.05, 7.10, 1.73, 0.70, 0.75
$ ---- HTP port: 8 x 6 = 48 boxes
CAERO1, 4000, 10, 0, 8, 6, 0, 0, 1
+, 6.90, 0.0, 0.70, 1.05, 7.10, -1.73, 0.70, 0.75
$
$ ---- VTP (single surface, "span" is Z): 6 x 6 = 36 boxes
$ Root extended down to z=0.60 so the fin crosses the HTP plane (z=0.70).
CAERO1, 5000, 10, 0, 6, 6, 0, 0, 1
+, 6.60, 0.0, 0.60, 1.50, 7.10, 0.0, 2.30, 0.85
$
$ ------------------------------------------------------- CRUCIFORM BODY PANELS
$ Two crossing flat surfaces standing in for the fuselage (sbeam has no body
$ element).  Tuned by sbeam.aero.body_correction so the TOTAL airplane Cm/Cn/Cl match
$ the CFD/WT "TOTAL" row of sample/cessna210_body_section_data.csv.
$
$ IMPORTANT — both panels are kept COMPACT and CLEAR OF THE EMPENNAGE.  They are
$ corrected, so their geometry need not match the airframe; what matters is that they do
$ not contaminate the real lifting surfaces.  A VLM box loads any other box that lies on
$ (or whose +X semi-infinite trailing legs pass through) its neighbourhood, so a body box
$ sitting in — or trailing its wake into — the HTP/VTP produces a purely numerical
$ interaction.  Both panels therefore:
$   * terminate at x=5.00, well ahead of the VTP LE (x=6.60) and HTP LE (x=6.90), so no
$     body box and no trailing leg reaches the empennage x-station;
$   * sit low and off the tail planes — the horizontal panel at z=0.30 (below the HTP at
$     z=0.70), the vertical panel wholly below the VTP root (z<0.60, in the same y=0 plane
$     as the fin) — so their downstream wakes pass under, not through, the tail;
$   * stay small (half-span 0.40, height 0.40) over the forward/mid fuselage where the
$     body's aero actually acts, minimising the spurious field they shed on the wing/tail.
$
$ NOTE (see docs/10_standard/05_aeroelastics.md "Cruciform limitations"): a flat-plate
$ cruciform can only LEGITIMATELY supply a SMALL body increment.  The "TOTAL" targets
$ here are the flying-surface totals plus a realistic fuselage increment (a mild
$ destabilising dCm/da and dCn/db, ~0 roll).  Large body effects — e.g. a several-MAC
$ neutral-point shift — are only reachable if the panels overlap/are immersed in the
$ tail (the spurious interaction this deck deliberately avoids); those belong to a true
$ slender-body element (backlog: "Body aerodynamic panels (slender body / CAERO2)").
$
$ ---- Horizontal body panel (XY plane at lower fuselage z=0.30, normal +Z): 2 x 8 = 16 boxes
$      Span y=-0.40..+0.40, chord x=0.30..5.00.  z=0.30 keeps the panel and its +X wake
$      below the HTP (z=0.70); pitch is z-independent, so dropping it costs nothing.
$      NCHORD=8 gives the streamwise moment-arm spread; NSPAN=2 across the width.
CAERO1, 6000, 10, 0, 2, 8, 0, 0, 1
+, 0.30, -0.40, 0.30, 4.70, 0.30, 0.40, 0.30, 4.70
$
$ ---- Vertical body panel (XZ plane at y=0, normal +Y): 4 x 8 = 32 boxes
$      Span z=0.05..0.45 (lower fuselage, BELOW the VTP root z=0.60), chord x=0.30..5.00.
$      The VTP shares this y=0 plane, so any body box (or +X trailing leg) at a z in the
$      fin band (0.60..2.30) drives a spurious sidewash straight onto the fin; holding the
$      panel below z=0.60 and ending at x=5.00 removes that overlap entirely.  NSPAN=4 up
$      the height gives the z-arm spread to shape roll (Cl_beta) vs yaw (Cn_beta).
CAERO1, 7000, 10, 0, 4, 8, 0, 0, 1
+, 0.30, 0.0, 0.05, 4.70, 0.30, 0.0, 0.45, 4.70
$
$ Body panels: SPLINE0 (zero structural coupling — negligible body elasticity).
$ Box-ID range = caero_eid + i_span*nchord + j_chord (horiz 16, vert 32 boxes).
SPLINE0, 9400, 6000, 6000, 6015
SPLINE0, 9500, 7000, 7000, 7031
$
ENDDATA
