$ =========================================================================
$ cessna210_aero.bdf — Cessna 210 Centurion-like GA aircraft (VLM aero model)
$ Full-span wing + horizontal tail + vertical tail + a light stick structure.
$ Companion to the multi-surface section force+moment correction
$ (sample/cessna210_section_data.csv — see sbeam.aero.section_data).
$
$ Coordinate system: X = freestream (forward), Y = starboard, Z = up; origin at nose.
$ Units: SI (m, N, kg, Pa).
$
$ Full-span model (SYMXZ=0): both wing halves and both HTP halves are modelled
$ explicitly; the VTP lies in the XZ plane (y=0) as a single CAERO1.
$
$ Aircraft geometry (Cessna 210-like, cantilever high wing):
$   Wing:  span 11.20 m, root chord 1.75 m, tip chord 1.15 m, area 16.24 m^2,
$          MAC 1.47 m, 1.5 deg dihedral, straight quarter-chord (slight LE sweep),
$          high-wing at z = 1.25 m. Root LE at (2.00, 0, 1.25).
$   HTP:   span 3.46 m, root chord 1.05 m, tip chord 0.75 m, at z = 0.70 m.
$          Root LE at (6.90, 0, 0.70).
$   VTP:   height 1.50 m, root chord 1.50 m, tip chord 0.85 m.
$          Root LE at (6.60, 0, 0.80), tip LE at (7.10, 0, 2.30).
$
$ The structural stick model (fuselage spine + wing/tail elastic axes) makes the
$ deck a complete, viewable SOL 101 model and follows the aero geometry; it is NOT
$ splined to the aero here (this is a steady-VLM / section-correction example, not
$ a SOL 144 trim model).
$ =========================================================================
$
SOL 101
$
SUBCASE 1
  TITLE = Cessna 210 1g Static (structure only; aero via Aero tab / SOL 144)
  SPC   = 1
  LOAD  = 10
  DISPLACEMENT = ALL
  SPCFORCE     = ALL
$
BEGIN BULK
$
$ ----------------------------------------------------------------- MATERIAL
$ Aluminium alloy (2024-T3 representative): E=70 GPa, G=26.9 GPa, nu=0.3, rho=2700
MAT1, 1, 7.0e10, 2.69e10, 0.3, 2700.0
$
$ ---------------------------------------------------------------- PROPERTIES
$ PID 1 — fuselage equivalent beam   A=0.020, I1=0.010, I2=0.010, J=0.015
PBAR, 1, 1, 0.020, 0.010, 0.010, 0.015
$ PID 2 — wing spar box              A=0.004, I1=8.0e-4 (flap), I2=8.0e-5 (chord), J=3.0e-4
PBAR, 2, 1, 0.004, 8.0e-4, 8.0e-5, 3.0e-4
$ PID 3 — empennage box (HTP/VTP)    A=0.002, I1=2.0e-4, I2=2.0e-5, J=1.0e-4
PBAR, 3, 1, 0.002, 2.0e-4, 2.0e-5, 1.0e-4
$
$ --------------------------------------------------------------------- NODES
$ Fuselage spine (y=0, z=0.6 cabin centreline)
GRID, 1, , 0.50, 0.0, 0.60
GRID, 2, , 2.70, 0.0, 0.60
GRID, 3, , 5.00, 0.0, 0.60
GRID, 4, , 6.90, 0.0, 0.60
GRID, 5, , 8.00, 0.0, 0.60
$
$ Wing elastic axis (~40% chord, z with 1.5 deg dihedral) — root then stbd/port
GRID, 10, , 2.70, 0.0,  1.250
GRID, 11, , 2.655, 2.80, 1.323
GRID, 12, , 2.610, 5.60, 1.397
GRID, 111, , 2.655, -2.80, 1.323
GRID, 112, , 2.610, -5.60, 1.397
$
$ HTP elastic axis (z=0.70)
GRID, 20, , 7.32, 0.0,   0.70
GRID, 21, , 7.36, 0.865, 0.70
GRID, 22, , 7.40, 1.73,  0.70
GRID, 121, , 7.36, -0.865, 0.70
GRID, 122, , 7.40, -1.73,  0.70
$
$ VTP elastic axis (vertical)
GRID, 30, , 7.20, 0.0, 0.80
GRID, 31, , 7.36, 0.0, 1.55
GRID, 32, , 7.525, 0.0, 2.30
$
$ ------------------------------------------------------------------ ELEMENTS
$ Fuselage CBARs (along X) — orientation vec (0,1,0)
CBAR, 1, 1, 1, 2, 0.0, 1.0, 0.0
CBAR, 2, 1, 2, 3, 0.0, 1.0, 0.0
CBAR, 3, 1, 3, 4, 0.0, 1.0, 0.0
CBAR, 4, 1, 4, 5, 0.0, 1.0, 0.0
$ Wing root strut (fuselage up to wing EA) — orientation vec (1,0,0)
CBAR, 5, 2, 2, 10, 1.0, 0.0, 0.0
$ Wing CBARs (along Y) — orientation vec (1,0,0)
CBAR, 11, 2, 10, 11, 1.0, 0.0, 0.0
CBAR, 12, 2, 11, 12, 1.0, 0.0, 0.0
CBAR, 111, 2, 10, 111, 1.0, 0.0, 0.0
CBAR, 112, 2, 111, 112, 1.0, 0.0, 0.0
$ Tail struts (fuselage to HTP / VTP roots) — orientation vec (0,1,0)
CBAR, 6, 3, 4, 20, 0.0, 1.0, 0.0
CBAR, 7, 3, 4, 30, 0.0, 1.0, 0.0
$ HTP CBARs (along Y) — orientation vec (1,0,0)
CBAR, 21, 3, 20, 21, 1.0, 0.0, 0.0
CBAR, 22, 3, 21, 22, 1.0, 0.0, 0.0
CBAR, 121, 3, 20, 121, 1.0, 0.0, 0.0
CBAR, 122, 3, 121, 122, 1.0, 0.0, 0.0
$ VTP CBARs (along Z) — orientation vec (0,1,0)
CBAR, 31, 3, 30, 31, 0.0, 1.0, 0.0
CBAR, 32, 3, 31, 32, 0.0, 1.0, 0.0
$
$ --------------------------------------------------------------- CONSTRAINTS
$ Fix all 6 DOFs at the nose reference node (ground/wind-tunnel mount)
SPC1, 1, 123456, 1
$
$ --------------------------------------------------------------------- LOADS
$ 1g body acceleration, -Z
GRAV, 10, 0, 9.81, 0.0, 0.0, -1.0
$
$ ============================================================== AERODYNAMICS
$ Reference geometry (full-span): CREF = wing MAC, BREF = wing span, SREF = wing area.
$ Quarter-MAC is near x = 2.55 m; moments here are reported about the origin (RCSID 0).
$ Field 8 (sbeam extension) is the default Mach for Prandtl-Glauert (0 = incompressible).
AEROS, 0, 0, 1.471, 11.20, 16.24, 0, 0, 0.0
$
$ Aerodynamic panel property (Phase A stub)
PAERO1, 10
$
$ Chordwise NCHORD = 6 (>=2 required for the section-moment correction; >=4
$ recommended for converged pitching moment). Spanwise NSPAN sized for box AR ~1.
$
$ ---- Wing starboard: 16 x 6 = 96 boxes
CAERO1, 1000, 10, 0, 16, 6, 0, 0, 1
+, 2.00, 0.0, 1.250, 1.75, 2.15, 5.60, 1.397, 1.15
$ ---- Wing port: 16 x 6 = 96 boxes
CAERO1, 2000, 10, 0, 16, 6, 0, 0, 1
+, 2.00, 0.0, 1.250, 1.75, 2.15, -5.60, 1.397, 1.15
$
$ ---- HTP starboard: 8 x 6 = 48 boxes
CAERO1, 3000, 10, 0, 8, 6, 0, 0, 1
+, 6.90, 0.0, 0.70, 1.05, 7.10, 1.73, 0.70, 0.75
$ ---- HTP port: 8 x 6 = 48 boxes
CAERO1, 4000, 10, 0, 8, 6, 0, 0, 1
+, 6.90, 0.0, 0.70, 1.05, 7.10, -1.73, 0.70, 0.75
$
$ ---- VTP (single surface, "span" is Z): 6 x 6 = 36 boxes
CAERO1, 5000, 10, 0, 6, 6, 0, 0, 1
+, 6.60, 0.0, 0.80, 1.50, 7.10, 0.0, 2.30, 0.85
$
ENDDATA
