$ =========================================================================
$ cessna210_flagship_bulk.bdf — FLAGSHIP realistic-airplane SOL 144 bulk model
$ (Step 65).  Bulk data ONLY — no case control.  Pulled in by the three thin
$ drivers via a case-control INCLUDE:
$
$   cessna210_flagship_trim.bdf     SC1 1g cruise + SC2 2.5g pull-up
$   cessna210_flagship_massset.bdf  one TRIM x three MASSSET payload cases
$   cessna210_flagship_mloads.bdf   trim + elevator-ramp transient (MLOADS)
$
$ Companion section-coefficient table: cessna210_flagship_section_data.csv.
$ Tutorial walk-through: docs/20_theory/02_realistic_airplane_sol144.md.
$
$ Coordinate system: X = aft along the fuselage, Y = starboard, Z = up;
$ origin ahead of the spinner.  Units: SI (m, N, kg, Pa, s).
$
$ Full-span model (SYMXZ = 0): both wing halves and both HTP halves are
$ modelled explicitly; the VTP lies in the XZ plane (y = 0) as one CAERO1.
$ sbeam has no half-span/symmetry support — see AEROS below.
$
$ -------------------------------------------------------------------------
$ AIRCRAFT GEOMETRY (Cessna 210-like, cantilever high wing)
$ -------------------------------------------------------------------------
$   Wing:  span 11.20, root chord 1.75, tip chord 1.15, area 16.24,
$          MAC 1.4707, AR 7.723, 1.5 deg dihedral, high wing at z = 1.25.
$          Root LE at (2.00, 0, 1.25); tip LE at (2.15, 5.60, 1.397).
$          The QUARTER-CHORD LINE IS STRAIGHT at x = 2.4375 (root
$          2.00 + 0.4375, tip 2.15 + 0.2875), so the quarter-MAC is at
$          x = 2.4375 exactly.  y_MAC = 2.607, LE of the MAC at x = 2.0698.
$          (An earlier revision of this model quoted "quarter-MAC near
$          x = 2.55" — that was wrong by 0.11 m; the value above is exact.)
$   HTP:   span 3.46, root chord 1.05, tip chord 0.75, at z = 0.70.
$          Root LE at (6.90, 0, 0.70); tip LE at (7.10, 1.73, 0.70).
$          The TWO-THIRDS-CHORD LINE IS ALSO STRAIGHT, at x = 7.60
$          (root 6.90 + 0.70, tip 7.10 + 0.50) — this is the elevator hinge.
$          Area 3.114, quarter-MAC at x = 7.2216, tail arm 4.784,
$          tail volume V_H = 3.114 x 4.784 / (16.24 x 1.4707) = 0.6237.
$   VTP:   height 1.50, root chord 1.50, tip chord 0.85.
$          Root LE at (6.60, 0, 0.80), tip LE at (7.10, 0, 2.30).
$ =========================================================================
$
$ ----------------------------------------------------------------- MATERIAL
$ Aluminium alloy (2024-T3 representative): E = 70 GPa, G = 26.9 GPa,
$ nu = 0.3, rho = 2700.  The MAT1 density is live: CBAR distributed mass
$ (rho*A) carries the primary STRUCTURE and the CONM2s carry the powerplant,
$ systems, furnishing and payload.  See the mass budget below.
MAT1, 1, 7.0e10, 2.69e10, 0.3, 2700.0
$
$ ---------------------------------------------------------------- PROPERTIES
$ Cross-section areas are sized as a MASS model as well as a stiffness model:
$ rho*A*L over each group must land on a believable structural weight.  (The
$ pre-flagship revision of this deck used A = 0.020 on the fuselage, which is
$ a ~54 kg/m spine — 564 kg of structure at CG x = 4.06.  That is a stiffness
$ placeholder, not an airframe, and it made the target CG unreachable.)
$
$ PID 1 — forward fuselage (x 0.50 -> 5.00)   A=0.0100  m_struct = 121.5 kg
PBAR, 1, 1, 0.0100, 0.010, 0.010, 0.015
$ PID 4 — aft fuselage / tailcone (x 5.00 -> 8.00), tapered  A=0.0040
PBAR, 4, 1, 0.0040, 0.0040, 0.0040, 0.0060
$ PID 2 — wing spar box.  MIND THE PBAR PLANES: I1 is about the element
$ y-axis and I2 about the element z-axis, so for a wing CBAR running along
$ global Y with orientation vector (1,0,0) it is I2 that resists FLAPWISE
$ (vertical) bending and I1 that resists CHORDWISE bending — the opposite of
$ what the pre-flagship revision of this deck claimed in its comment.
$ Verified directly: dividing I2 by 10 multiplies the 1g wing-tip deflection
$ by 10 (13.5 -> 134.7 mm); dividing I1 by 10 changes it by 0.15%.
$
$ I2 and J are CALIBRATED, not inherited.  With the pre-flagship values
$ (I2=8.0e-5, J=3.0e-4) the wing is effectively rigid: the elastic-restrained
$ CZ_alpha sits +0.44% off rigid and divergence is 175x the trim q, so there
$ is no aeroelasticity left to demonstrate.  The values below put the
$ elastic-restrained CZ_alpha +4.1% above rigid with divergence still 19.8x
$ the cruise q, and give wing-tip deflections of 109 mm at 1g / 272 mm at
$ 2.5g (2.0% / 4.9% of the 5.6 m semispan) — a believable GA wing.
$   A=0.0050, I1 (chordwise), I2 (flapwise), J (torsion)
PBAR, 2, 1, 0.0050, 8.0e-4, 1.0e-5, 3.0e-5
$ PID 3 — empennage box (HTP/VTP)   A=0.00225
PBAR, 3, 1, 0.00225, 2.0e-4, 2.0e-5, 1.0e-4
$
$ ------------------------------------------------------------ COORD SYSTEMS
$ CID 990 — stability axis referenced by AEROS RCSID: origin at the trim
$ reference point GRID 900 (the quarter-MAC), z DOWN.  This is the HA144A
$ convention, and it is what makes URDD3 = -g a 1g pull (see the TRIM cards).
CORD2R, 990, 0, 2.4375, 0.0, 0.60, 2.4375, 0.0, -9.40
+, 12.4375, 0.0, 0.60
$
$ CIDs 991-994 — SPLINE2 axis systems.  MSC convention: the spline axis is
$ the CID *y*-axis, the x-axis is the chord / rigid-arm direction and the
$ z-axis the deflection direction.  Each is built from the elastic axis it
$ serves: y = unit(root EA -> tip EA), z = global +Z made orthogonal to y
$ (so the 1.5 deg wing dihedral is carried exactly), x = y cross z.
$ CID 991 — RIGHT wing spline axis, y = (-0.016064, 0.999527, 0.026238)
CORD2R, 991, 0, 2.70000, 0.00000, 1.25000, 2.70422, -0.26234, 11.24656
+, 12.69871, 0.16069, 1.25000
$ CID 992 — LEFT wing spline axis (mirror), y = (-0.016064, -0.999527, 0.026238)
CORD2R, 992, 0, 2.70000, 0.00000, 1.25000, 2.70422, 0.26234, 11.24656
+, -7.29871, 0.16069, 1.25000
$ CID 993 — RIGHT HTP spline axis, y = (0.046193, 0.998933, 0.0)
CORD2R, 993, 0, 7.32000, 0.00000, 0.70000, 7.32000, 0.00000, 10.70000
+, 17.30933, -0.46193, 0.70000
$ CID 994 — LEFT HTP spline axis, y = (0.046193, -0.998933, 0.0)
CORD2R, 994, 0, 7.32000, 0.00000, 0.70000, 7.32000, 0.00000, 10.70000
+, -2.66933, -0.46193, 0.70000
$
$ CID 995 — ELEVATOR hinge axis.  AESURF takes the hinge as the CID *y*-axis
$ (same convention as the SPLINE2 spline axis, and as HA144A's canard CID 1),
$ so y must run spanwise along the straight two-thirds-chord line x = 7.60.
$ Built as z = +Z, x = +X, hence y = z cross x = +Y.  Getting this wrong is
$ silent: the ELEV column of D_jx comes out identically zero and the trim
$ Schur system goes singular with nothing to say why.
CORD2R, 995, 0, 7.60, 0.0, 0.70, 7.60, 0.0, 10.70
+, 17.60, 0.0, 0.70
$
$ --------------------------------------------------------------------- NODES
$ Fuselage spine (y = 0, z = 0.60 cabin centreline).  GRID 900 is the trim
$ reference / SUPORT point and sits IN the spine load path at the quarter-MAC
$ (x = 2.4375) — it is a real structural node between GRID 1 and GRID 2, not
$ a grid hung off an RBE2.
GRID, 1, , 0.50, 0.0, 0.60
GRID, 900, , 2.4375, 0.0, 0.60
GRID, 2, , 2.70, 0.0, 0.60
GRID, 3, , 5.00, 0.0, 0.60
GRID, 4, , 6.90, 0.0, 0.60
GRID, 5, , 8.00, 0.0, 0.60
$
$ Wing elastic axis (~40% chord, z follows the 1.5 deg dihedral)
GRID, 10, , 2.70, 0.0,  1.250
GRID, 11, , 2.655, 2.80, 1.323
GRID, 12, , 2.610, 5.60, 1.397
GRID, 111, , 2.655, -2.80, 1.323
GRID, 112, , 2.610, -5.60, 1.397
$
$ HTP elastic axis (z = 0.70)
GRID, 20, , 7.32, 0.0,   0.70
GRID, 21, , 7.36, 0.865, 0.70
GRID, 22, , 7.40, 1.73,  0.70
GRID, 121, , 7.36, -0.865, 0.70
GRID, 122, , 7.40, -1.73,  0.70
$
$ VTP elastic axis (vertical)
GRID, 30, , 7.20, 0.0, 0.80
GRID, 31, , 7.36, 0.0, 1.55
GRID, 32, , 7.525, 0.0, 2.30
$
$ ------------------------------------------------------------------ ELEMENTS
$ Fuselage CBARs (along X) — orientation vec (0,1,0).  PID 1 forward of
$ GRID 3, PID 4 aft of it (the tapered tailcone).
CBAR, 1, 1, 1, 900, 0.0, 1.0, 0.0
CBAR, 2, 1, 900, 2, 0.0, 1.0, 0.0
CBAR, 3, 1, 2, 3, 0.0, 1.0, 0.0
CBAR, 4, 4, 3, 4, 0.0, 1.0, 0.0
CBAR, 5, 4, 4, 5, 0.0, 1.0, 0.0
$ Wing root strut (fuselage up to wing EA) — orientation vec (1,0,0)
CBAR, 10, 2, 2, 10, 1.0, 0.0, 0.0
$ Wing CBARs (along Y) — orientation vec (1,0,0)
CBAR, 11, 2, 10, 11, 1.0, 0.0, 0.0
CBAR, 12, 2, 11, 12, 1.0, 0.0, 0.0
CBAR, 111, 2, 10, 111, 1.0, 0.0, 0.0
CBAR, 112, 2, 111, 112, 1.0, 0.0, 0.0
$ Tail struts (fuselage to HTP / VTP roots) — orientation vec (0,1,0)
CBAR, 20, 3, 4, 20, 0.0, 1.0, 0.0
CBAR, 30, 3, 4, 30, 0.0, 1.0, 0.0
$ HTP CBARs (along Y) — orientation vec (1,0,0)
CBAR, 21, 3, 20, 21, 1.0, 0.0, 0.0
CBAR, 22, 3, 21, 22, 1.0, 0.0, 0.0
CBAR, 121, 3, 20, 121, 1.0, 0.0, 0.0
CBAR, 122, 3, 121, 122, 1.0, 0.0, 0.0
$ VTP CBARs (along Z) — orientation vec (0,1,0)
CBAR, 31, 3, 30, 31, 0.0, 1.0, 0.0
CBAR, 32, 3, 31, 32, 0.0, 1.0, 0.0
$
$ ============================================================== POINT MASSES
$ 19 CONM2s carrying powerplant, systems, furnishing and payload.  Together
$ with ~349 kg of CBAR structural mass the baseline aircraft is 1081 kg with
$ the CG at 22% MAC (x = 2.3934) — 31 points of static margin against a
$ neutral point near 53% MAC, i.e. a conventionally stable GA airplane.
$
$ THIS IS A LUMPED STICK IDEALISATION.  GRID 1 is the engine-mount station
$ and its 313 kg stands for the whole powerplant installation (engine,
$ propeller, spinner, cowling, nose gear, firewall accessories) — ~29% of
$ the aircraft mass on the nose, which is what puts the CG at 22% MAC on
$ this airframe.  The MASSSET cases below move the payload, not this group.
$
$ Fuselage
CONM2, 1, 1, 0, 312.8
CONM2, 2, 900, 0, 203.6
CONM2, 3, 2, 0, 45.0
$ CONM2 7 — rear-seat occupants + baggage.  Split out of the GRID 2 lump so
$ the MASSSET cases have a payload card to DELETE / REPLACE; 45 + 85 = the
$ 130 kg this station carries in the baseline, so the baseline is unchanged.
CONM2, 7, 2, 0, 85.0
CONM2, 4, 3, 0, 8.0
CONM2, 5, 4, 0, 5.0
CONM2, 6, 5, 0, 3.0
$ Wing — centre section + per-station equipment (both halves)
CONM2, 10, 10, 0, 20.0
CONM2, 11, 11, 0, 12.0
CONM2, 12, 12, 0, 5.0
CONM2, 111, 111, 0, 12.0
CONM2, 112, 112, 0, 5.0
$ HTP
CONM2, 20, 20, 0, 4.0
CONM2, 21, 21, 0, 2.0
CONM2, 22, 22, 0, 1.0
CONM2, 121, 121, 0, 2.0
CONM2, 122, 122, 0, 1.0
$ VTP
CONM2, 30, 30, 0, 3.0
CONM2, 31, 31, 0, 1.5
CONM2, 32, 32, 0, 1.0
$
$ ------------------------------------------------------ OVERLAY POINT MASSES
$ Referenced by a MASSSET ADD or by the overlay slot of a REPLACE, so they are
$ EXCLUDED from the baseline mass and enter only the cases that name them.
$ Ordinary CONM2 cards in every other respect.
$
$ Wing fuel, half tanks (MASSSET 20 CRUISE) — 120 kg at the wing EA stations
CONM2, 6001, 11, 0, 40.0
CONM2, 6002, 111, 0, 40.0
CONM2, 6003, 12, 0, 20.0
CONM2, 6004, 112, 0, 20.0
$ Wing fuel, full tanks (MASSSET 30 MTOW) — 240 kg
CONM2, 6011, 11, 0, 80.0
CONM2, 6012, 111, 0, 80.0
CONM2, 6013, 12, 0, 40.0
CONM2, 6014, 112, 0, 40.0
$ Full cabin (MASSSET 30 MTOW) — four occupants + baggage, REPLACING the
$ 85 kg baseline card 7.  This one carries an OFFSET: its CG sits 0.35 m aft
$ of and 0.10 m below GRID 2, so the deck exercises the CONM2 offset path
$ (translation-rotation coupling and the parallel-axis transfer) inside a
$ mass case rather than only at the baseline.
CONM2, 6020, 2, 0, 324.0, 0.35, 0.0, -0.10
$
$ ============================================================== MASS CASES
$ Three payload conditions over one airframe.  Stiffness, splines and the
$ whole VLM AeroCache are geometry/Mach-only and are built ONCE and shared;
$ only M_gg, M_ax, GPWG and the trim solve are rebuilt per case.
$
$   MASSSET 10  FERRY    996.0 kg   baseline less the rear-seat payload
$   MASSSET 20  CRUISE  1201.0 kg   baseline + 120 kg half wing fuel
$   MASSSET 30  MTOW    1560.0 kg   baseline + 240 kg full wing fuel
$                                   + rear-seat payload 85 -> 324 kg
$
$ The bare deck (no MASSSET selected) is the 1081.0 kg baseline.  All three
$ ops are exercised: DELETE by 10, ADD by 20 and 30, REPLACE by 30.
$
$ Physics the sweep demonstrates: heavier cases must trim to a larger ANGLEA
$ at the same q, AND the wing-root bending per unit aircraft weight must FALL
$ as fuel goes into the wing — inertia relief, because wing fuel is carried
$ outboard of the root cut and its weight cancels part of the lift there.
MASSSET, 10, FERRY, 1.0
+, DELETE, 7
MASSSET, 20, CRUISE, 1.0
+, ADD, 6001, 6002, 6003, 6004
MASSSET, 30, MTOW, 1.0
+, ADD, 6011, 6012, 6013, 6014
+, REPLACE, 7, 6020
$
$ --------------------------------------------------------------- CONSTRAINTS
$ Full-span free-flight support, NOT a ground mount.  Pin the four non-trim
$ rigid-body modes (Tx, Ty, Rx, Rz) at the single reference point GRID 900;
$ SUPORT carries the two symmetric trim DOFs (Tz, Ry).  Under symmetric loads
$ the antisymmetric DOFs come out ~0 with no SPC needed, so the airframe
$ deforms freely and both wings react through the fuselage.
SPC1, 1, 1246, 900
SUPORT, 900, 35
$
$ ============================================================== AERODYNAMICS
$ Reference geometry (full-span): CREF = wing MAC, BREF = wing span,
$ SREF = wing area.  RCSID = 990 puts the rigid-body motion and the reported
$ moments in the z-down stability axis at the quarter-MAC.
$ Field 8 (sbeam extension) is the default Mach for Prandtl-Glauert.
AEROS, 0, 990, 1.4707, 11.20, 16.24, 0, 0, 0.0
$
$ Aerodynamic panel property
PAERO1, 10
$
$ MESH SIZING.  NCHORD = 6 chordwise on every surface: >= 2 is required for
$ the section-moment correction at all, and >= 4 is needed before the
$ pitching moment converges; 6 leaves margin at the 2.5g operating point.
$ NSPAN is then chosen per surface to keep the box aspect ratio near 1, which
$ is what the VLM's horseshoe-vortex kernel is best conditioned for.
$ CAERO1 EIDs are 1000-spaced so every box ID (EID + i_span*NCHORD + j_chord)
$ stays inside its own decade: 1000-1095, 2000-2095, 3000-3047, 4000-4047,
$ 5000-5035.  6000/7000 are RESERVED for the Step 66 body panels.
$
$ ---- Wing starboard: 16 x 6 = 96 boxes (1000-1095)
CAERO1, 1000, 10, 0, 16, 6, 0, 0, 1
+, 2.00, 0.0, 1.250, 1.75, 2.15, 5.60, 1.397, 1.15
$ ---- Wing port: 16 x 6 = 96 boxes (2000-2095)
CAERO1, 2000, 10, 0, 16, 6, 0, 0, 1
+, 2.00, 0.0, 1.250, 1.75, 2.15, -5.60, 1.397, 1.15
$
$ ---- HTP starboard: 8 x 6 = 48 boxes (3000-3047)
CAERO1, 3000, 10, 0, 8, 6, 0, 0, 1
+, 6.90, 0.0, 0.70, 1.05, 7.10, 1.73, 0.70, 0.75
$ ---- HTP port: 8 x 6 = 48 boxes (4000-4047)
CAERO1, 4000, 10, 0, 8, 6, 0, 0, 1
+, 6.90, 0.0, 0.70, 1.05, 7.10, -1.73, 0.70, 0.75
$
$ ---- VTP (single surface, "span" is Z): 6 x 6 = 36 boxes (5000-5035)
CAERO1, 5000, 10, 0, 6, 6, 0, 0, 1
+, 6.60, 0.0, 0.80, 1.50, 7.10, 0.0, 2.30, 0.85
$
$ ================================================================== SPLINES
$ Four SPLINE2 beam splines (wing L/R, HTP L/R) plus one ATTACH (fin).
$
$ DTHY MUST BE 0.0 ON EVERY SPLINE2 HERE.  Each SET1 lists elastic-axis grids
$ only, and those are collinear along the spline axis, so the beam spline has
$ NO twist information of its own: detaching torsion (DTHY = -1, the HA144A
$ setting, which works there because its SET1s carry LE/TE stringer PAIRS)
$ leaves the spline system singular and the operator build raises ValueError.
$ DTHY = 0.0 attaches torsion rigidly to the EA rotation, which is exactly
$ right for a stick model whose only twist DOF is the beam's own Rx/Ry.
$ DTHX is left at its 0.0 default for the same reason.
$
$ ---- RIGHT wing: boxes 1000-1095 to the starboard EA, axis CID 991
SET1, 1010, 10, 11, 12
SPLINE2, 1001, 1000, 1000, 1095, 1010, 0.0, 1.0, 991
$ ---- LEFT wing: boxes 2000-2095 to the port EA, axis CID 992
SET1, 1020, 10, 111, 112
SPLINE2, 1002, 2000, 2000, 2095, 1020, 0.0, 1.0, 992
$ ---- RIGHT HTP: boxes 3000-3047 to the starboard HTP EA, axis CID 993
SET1, 1030, 20, 21, 22
SPLINE2, 1003, 3000, 3000, 3047, 1030, 0.0, 1.0, 993
$ ---- LEFT HTP: boxes 4000-4047 to the port HTP EA, axis CID 994
SET1, 1040, 20, 121, 122
SPLINE2, 1004, 4000, 4000, 4047, 1040, 0.0, 1.0, 994
$
$ ---- VTP: ATTACH, not SPLINE2.
$ The fin is short, stiff and vertical.  Two reasons it gets the rigid
$ attachment instead of a beam spline: (a) a SPLINE2 would need a spline-axis
$ CORD2R whose y-axis runs along global Z, the awkward case; (b) the fin's
$ own bending is negligible next to the tailcone bending that carries it, so
$ rigidly slaving all 36 fin boxes to the fin-root grid is the physically
$ honest idealisation.  ATTACH requires CID = 0.
ATTACH, 1005, 5000, 5000, 5035, 30, 0
$
$ ============================================================ MONITOR POINTS
$ Integrated section loads for the structures/loads handoff.  Two flavours:
$   MONPNT1 = AERO ONLY, summed over a box collection (AELIST);
$   MONPNT3 = AERO + INERTIA + REACTION, summed over structural grids (SET1).
$ On a balanced maneuver the whole-aircraft MONPNT1 returns n*W while the
$ whole-aircraft MONPNT3 returns ~0 — that contrast is the point of having
$ both, and it is the cheapest end-to-end check that the trim really balanced.
$
$ ---- Right wing outboard of the root cut.
$ Deliberately EXCLUDES the shared root grid 10: taken about the root station
$ (2.70, 0, 1.25), the resultant of grids 11 and 12 IS the starboard
$ wing-root shear and bending moment.
SET1, 1300, 11, 12
AECOMP, RWINGEA, SET1, 1300
MONPNT3, MWROOT, RIGHT WING ROOT, 35, RWINGEA, 0, 2.70, 0.0, 1.25
$
$ ---- Whole aircraft.
$ DEF-M10 RULE: this SET1 must list EVERY spline-load grid AND EVERY
$ CONM2-bearing grid.  Grids 1, 900, 3, 5, 31 and 32 carry mass but take no
$ spline load; leaving any of them out silently drops that share of the
$ inertia and the "MONPNT3 ~ 0" balance check stops meaning anything.
$ Overlay (MASSSET) CONM2s live on grids 2, 11, 12, 111, 112 — already here.
SET1, 1310, 1, 900, 2, 3, 4, 5, 10, 11
+, 12, 111, 112, 20, 21, 22, 121, 122
+, 30, 31, 32
AECOMP, ALLGRID, SET1, 1310
MONPNT3, MALLEA, WHOLE AIRCRAFT, 35, ALLGRID, 0, 2.4375, 0.0, 0.60
$
$ ---- Whole-aircraft aero, and starboard-wing aero (aero-only).
AELIST, 1400, 1000, THRU, 1095, 2000, THRU, 2095, 3000, THRU, 3047
+, 4000, THRU, 4047, 5000, THRU, 5035
AECOMP, ALLAERO, AELIST, 1400
MONPNT1, MALLAR, AIRCRAFT AERO, 35, ALLAERO, 0, 2.4375, 0.0, 0.60
AELIST, 1410, 1000, THRU, 1095
AECOMP, RWAERO, AELIST, 1410
MONPNT1, MRWAER, RIGHT WING AERO, 35, RWAERO, 0, 2.70, 0.0, 1.25
$
$ ---- Section-cut running loads (MONSECT, Monitor Phase 2).
$ Where a MONPNT3 gives ONE resultant, a MONSECT sweeps the same sum over a
$ list of cut planes and returns the per-station {shear, bending, torque} table
$ the stress group sizes the wing from.
$ CID 991 is the right wing's SPLINE2 axis, reused verbatim as the cut frame:
$ its y-axis is the elastic axis, so the default AXIS=2 measures stations along
$ the EA and every cut's moment reference lands on it.  Stations are chosen
$ clear of the EA grids (11 at 2.801, 12 at 5.603) so no cut lands on a grid;
$ 6.50 is outboard of the tip and must return exactly zero.
$ Under a MASSSET case the wing-fuel CONM2s on grids 11/12 enter the inertia
$ column automatically, so the table is per mass case with no extra cards.
MONSECT, SECRW, RIGHT WING LOADS, RWINGEA, 991
+, 0.30, 1.50, 4.20, 6.50
$ The same stations taken aero-only (an AELIST-type AECOMP), for the airload
$ distribution without the inertia relief.
MONSECT, SECRWA, RIGHT WING AIRLOAD, RWAERO, 991
+, 0.30, 1.50, 4.20, 6.50
$
$ ======================================================= TRIM VARIABLE SET
$ Symmetric longitudinal trim: two free variables (ANGLEA and the elevator)
$ against the two SUPORT equations (Tz and Ry) — a determined trim.
AESTAT, 501, ANGLEA
AESTAT, 502, PITCH
AESTAT, 503, URDD3
AESTAT, 504, URDD5
$
$ --------------------------------------------------------- CONTROL SURFACE
$ ELEV is a PART-CHORD elevator: the aft two of the six chordwise box rows on
$ each HTP panel, i.e. the aft third of the chord, hinged on the straight
$ two-thirds-chord line x = 7.60 (CID 995 x-axis).  Box IDs are
$ EID + i_span*NCHORD + j_chord with NCHORD = 6, so the hinged rows are
$ j_chord = 4 and 5: 3000+6s+{4,5} and 4000+6s+{4,5} for s = 0..7.
AESURF, 505, ELEV, 995, 3100
AELIST, 3100, 3004, 3005, 3010, 3011, 3016, 3017, 3022
+, 3023, 3028, 3029, 3034, 3035, 3040, 3041, 3046
+, 3047
+, 4004, 4005, 4010, 4011, 4016, 4017, 4022, 4023
+, 4028, 4029, 4034, 4035, 4040, 4041, 4046, 4047
$
$ ================================================================ TRIM CARDS
$ Cruise condition: q = 2334 Pa at sea level (rho = 1.225) gives
$ V = sqrt(2q/rho) = 61.7 m/s = 120 kt.  M = 0.18 in reality; the deck runs
$ M = 0.0 (incompressible) because the section data below is tabulated there
$ and the Prandtl-Glauert factor at M = 0.18 is 1.016 — inside the noise.
$
$ URDD3 = -g is the HA144A sign convention: RCSID 990 is z-DOWN, so a 1g
$ level pull is a -9.81 vertical acceleration in that frame.
$
$ RHOREF (sbeam extension) is the freestream density.  It takes no part in
$ the static trim; it exists only so V = sqrt(2q/rho) is available to the
$ transient maneuver rate terms in the MLOADS driver.
$
$ TRIM 1 — 1g cruise.  Expected CL = W/(q*S) = 1081*9.81/(2334*16.24) = 0.280.
TRIM, 1, 0.0, 2334.0, RHOREF, 1.225, PITCH, 0.0
+, URDD3, -9.81, URDD5, 0.0
$
$ TRIM 2 — 2.5g symmetric pull-up at the same q.  A steady pull-up is a
$ constant pitch RATE as well as a load factor: the nondimensional rate is
$ PITCH = q_pitch*c/(2V) with q_pitch = (n-1)*g/V, i.e.
$   PITCH = (n-1)*g*c/(2V^2) = 1.5*9.81*1.4707/(2*3810.2) = 2.8402e-3.
$ Leaving PITCH at 0 would trim a 2.5g *pull* with no *rotation* — a
$ different (and unphysical) manoeuvre, and it would drop the tail damping
$ contribution that sets the real elevator-per-g gradient.
TRIM, 2, 0.0, 2334.0, RHOREF, 1.225, PITCH, 2.8402-3
+, URDD3, -24.525, URDD5, 0.0
$
$ ============================================ TRANSIENT MANEUVER (MLOADS)
$ Phase G0 quasi-steady, open-loop, restrained-l-set Newmark-beta run.  Used
$ by cessna210_flagship_mloads.bdf; inert in the other two drivers.
$
$ Driver: IC = MLDTRIM 1, window = MLDTIME 1, commands = MLDCOMD 1,
$ ASCII print = MLDPRNT 1.
MLOADS, 1, 1, 1, 1, 1
$ Initial condition = the static 1g cruise trim (TRIM 1).
MLDTRIM, 1, 1
$ Integrate 0 -> 1.0 s at dt = 0.005 s, output every 0.05 s (21 samples).
MLDTIME, 1, 0.0, 1.0, 0.005, 0.05
$ Pilot command: ELEV follows TABLED1 300.  Labels not listed hold trim.
MLDCOMD, 1, ELEV, 300
$ ASCII time-history print.
MLDPRNT, 1
$
$ MLDCOMD TABLES ARE ABSOLUTE, NOT INCREMENTAL.  The table below therefore
$ STARTS at the trimmed elevator angle and ramps up from there — it is not a
$ perturbation about the trim.  That makes the deck a TWO-PASS authoring job:
$ run cessna210_flagship_trim.bdf first, read the trimmed ELEV out of the
$ SUBCASE 1 f06 block, then write it in here.  Start the table at 0.0 instead
$ and the airplane takes a 3.8 deg step elevator input at t = 0.
$
$ Trimmed 1g ELEV = -0.06599247 rad (-3.78108 deg).  Nose-up pull: ramp +2 deg
$ (+0.03490659 rad) over 0.3 s to -0.03108589 rad, then hold to 1.0 s.
$ Carried to 8 decimals deliberately: the transient reads t = 0 straight off
$ this table, so the authored precision here IS the precision to which the
$ initial condition reproduces the trim.  Test T5 re-solves the trim and
$ compares, so a stale number fails the suite rather than quietly producing a
$ slightly-wrong transient.
$
$ CASE-SPECIFIC.  Because the table is absolute it is also tied to the mass
$ case it was authored for.  Selecting a MASSSET alongside MLOADS shifts the
$ trimmed elevator, so this first point is no longer that case's equilibrium
$ and the run starts with a step input (see test T6).
TABLED1, 300
+, 0.0, -0.06599247, 0.3, -0.03108589, 1.0, -0.03108589, ENDT
$
$ --------------------------------------------------------------------
$ sbeam aero correction  —  cessna210_flagship_bulk.bdf
$ source section data : cessna210_flagship_section_data.csv
$ generated           : 2026-08-01
$ condition           : Mach 0  alpha 2.3904 deg  beta 0 deg
$ corrected surfaces  : CAERO [1000, 2000, 3000, 4000, 5000]
$ --------------------------------------------------------------------
$ Section force+moment correction (W2GJ camber offset + WT2 slope/a.c.)
W2GJ, 9100, 1000, -2.584762E-02, -2.933104E-03, 1.998141E-02, 4.289592E-02, 6.581044E-02, 8.872495E-02
+, -3.582367E-02, -1.429444E-02, 7.234796E-03, 2.876403E-02, 5.029326E-02, 7.182249E-02, -4.120603E-02, -2.017053E-02
+, 8.649691E-04, 2.190047E-02, 4.293597E-02, 6.397147E-02, -4.545678E-02, -2.476745E-02, -4.078108E-03, 1.661123E-02
+, 3.730057E-02, 5.798990E-02, -4.875271E-02, -2.841912E-02, -8.085537E-03, 1.224805E-02, 3.258163E-02, 5.291522E-02
+, -5.323713E-02, -3.301717E-02, -1.279720E-02, 7.422769E-03, 2.764274E-02, 4.786270E-02, -5.768247E-02, -3.754036E-02
+, -1.739826E-02, 2.743846E-03, 2.288595E-02, 4.302806E-02, -6.154202E-02, -4.155162E-02, -2.156122E-02, -1.570827E-03
+, 1.841957E-02, 3.840997E-02, -6.490420E-02, -4.514434E-02, -2.538448E-02, -5.624627E-03, 1.413523E-02, 3.389509E-02
+, -6.690816E-02, -4.756629E-02, -2.822441E-02, -8.882541E-03, 1.045933E-02, 2.980121E-02, -7.287063E-02, -5.337887E-02
+, -3.388712E-02, -1.439536E-02, 5.096400E-03, 2.458816E-02, -7.767191E-02, -5.824500E-02, -3.881809E-02, -1.939118E-02
+, 3.573188E-05, 1.946264E-02, -7.989728E-02, -6.098338E-02, -4.206948E-02, -2.315558E-02, -4.241683E-03, 1.467222E-02
+, -8.768923E-02, -6.878672E-02, -4.988420E-02, -3.098168E-02, -1.207917E-02, 6.823349E-03, -9.689076E-02, -7.861167E-02
+, -6.033257E-02, -4.205348E-02, -2.377438E-02, -5.495289E-03, -1.206899E-01, -1.045925E-01, -8.849515E-02, -7.239780E-02
+, -5.630045E-02, -4.020309E-02
AECORR, 9200, WT2, 1000, 1.744426E+00, 9.546168E-01, 6.642042E-01, 4.774428E-01, 3.283558E-01
+, 1.885065E-01, 1.726973E+00, 9.389171E-01, 6.522919E-01, 4.695229E-01, 3.241049E-01, 1.872413E-01, 1.706469E+00
+, 9.244673E-01, 6.416791E-01, 4.620350E-01, 3.193884E-01, 1.849222E-01, 1.684671E+00, 9.099806E-01, 6.313117E-01
+, 4.546178E-01, 3.144492E-01, 1.822510E-01, 1.661819E+00, 8.954167E-01, 6.209284E-01, 4.471226E-01, 3.093399E-01
+, 1.793871E-01, 1.621296E+00, 8.733379E-01, 6.055426E-01, 4.360008E-01, 3.016271E-01, 1.749115E-01, 1.573527E+00
+, 8.485156E-01, 5.882861E-01, 4.234544E-01, 2.928400E-01, 1.697399E-01, 1.525743E+00, 8.242959E-01, 5.713555E-01
+, 4.110204E-01, 2.840359E-01, 1.644986E-01, 1.477844E+00, 8.007776E-01, 5.547937E-01, 3.986991E-01, 2.751951E-01
+, 1.591662E-01, 1.429649E+00, 7.781395E-01, 5.386764E-01, 3.864908E-01, 2.662829E-01, 1.537044E-01, 1.339514E+00
+, 7.379059E-01, 5.107492E-01, 3.656680E-01, 2.512166E-01, 1.444872E-01, 1.246170E+00, 6.982933E-01, 4.828813E-01
+, 3.444744E-01, 2.356338E-01, 1.348371E-01, 1.153439E+00, 6.624287E-01, 4.567753E-01, 3.238316E-01, 2.200547E-01
+, 1.250292E-01, 1.004333E+00, 6.061062E-01, 4.157298E-01, 2.916736E-01, 1.961811E-01, 1.102522E-01, 8.279262E-01
+, 5.458205E-01, 3.683941E-01, 2.537602E-01, 1.683401E-01, 9.335777E-02, 6.107827E-01, 4.718996E-01, 3.046380E-01
+, 2.052898E-01, 1.352535E-01, 7.471456E-02
W2GJ, 9101, 2000, -2.584580E-02, -2.929694E-03, 1.998641E-02, 4.290251E-02, 6.581861E-02, 8.873471E-02
+, -3.581987E-02, -1.429276E-02, 7.234352E-03, 2.876146E-02, 5.028857E-02, 7.181568E-02, -4.119939E-02, -2.016893E-02
+, 8.615330E-04, 2.189200E-02, 4.292246E-02, 6.395292E-02, -4.544703E-02, -2.476480E-02, -4.082558E-03, 1.659968E-02
+, 3.728192E-02, 5.796416E-02, -4.873996E-02, -2.841473E-02, -8.089490E-03, 1.223575E-02, 3.256098E-02, 5.288622E-02
+, -5.322156E-02, -3.301062E-02, -1.279969E-02, 7.411250E-03, 2.762219E-02, 4.783312E-02, -5.766434E-02, -3.753149E-02
+, -1.739865E-02, 2.734200E-03, 2.286705E-02, 4.299989E-02, -6.152177E-02, -4.154051E-02, -2.155925E-02, -1.577994E-03
+, 1.840327E-02, 3.838453E-02, -6.488236E-02, -4.513129E-02, -2.538021E-02, -5.629128E-03, 1.412195E-02, 3.387303E-02
+, -6.688541E-02, -4.755175E-02, -2.821810E-02, -8.884449E-03, 1.044920E-02, 2.978286E-02, -7.284649E-02, -5.336260E-02
+, -3.387871E-02, -1.439481E-02, 5.089082E-03, 2.457298E-02, -7.764694E-02, -5.822743E-02, -3.880791E-02, -1.938840E-02
+, 3.111726E-05, 1.945063E-02, -7.987238E-02, -6.096524E-02, -4.205810E-02, -2.315095E-02, -4.243806E-03, 1.466334E-02
+, -8.766355E-02, -6.876739E-02, -4.987123E-02, -3.097507E-02, -1.207890E-02, 6.817258E-03, -9.686462E-02, -7.859130E-02
+, -6.031798E-02, -4.204467E-02, -2.377135E-02, -5.498030E-03, -1.206639E-01, -1.045715E-01, -8.847903E-02, -7.238658E-02
+, -5.629413E-02, -4.020168E-02
AECORR, 9201, WT2, 2000, 1.744427E+00, 9.546175E-01, 6.642023E-01, 4.774409E-01, 3.283553E-01
+, 1.885087E-01, 1.726915E+00, 9.389649E-01, 6.523226E-01, 4.695321E-01, 3.240955E-01, 1.872215E-01, 1.706359E+00
+, 9.245554E-01, 6.417386E-01, 4.620539E-01, 3.193707E-01, 1.848837E-01, 1.684526E+00, 9.100969E-01, 6.313907E-01
+, 4.546427E-01, 3.144255E-01, 1.822001E-01, 1.661654E+00, 8.955489E-01, 6.210177E-01, 4.471502E-01, 3.093127E-01
+, 1.793301E-01, 1.621127E+00, 8.734745E-01, 6.056339E-01, 4.360283E-01, 3.015988E-01, 1.748539E-01, 1.573363E+00
+, 8.486486E-01, 5.883738E-01, 4.234799E-01, 2.928123E-01, 1.696851E-01, 1.525591E+00, 8.244205E-01, 5.714365E-01
+, 4.110431E-01, 2.840098E-01, 1.644486E-01, 1.477706E+00, 8.008917E-01, 5.548666E-01, 3.987187E-01, 2.751712E-01
+, 1.591217E-01, 1.429525E+00, 7.782425E-01, 5.387410E-01, 3.865075E-01, 2.662613E-01, 1.536653E-01, 1.339406E+00
+, 7.379968E-01, 5.108050E-01, 3.656816E-01, 2.511974E-01, 1.444538E-01, 1.246075E+00, 6.983744E-01, 4.829298E-01
+, 3.444854E-01, 2.356167E-01, 1.348085E-01, 1.153354E+00, 6.625030E-01, 4.568184E-01, 3.238405E-01, 2.200390E-01
+, 1.250044E-01, 1.004255E+00, 6.061758E-01, 4.157682E-01, 2.916803E-01, 1.961665E-01, 1.102305E-01, 8.278495E-01
+, 5.458910E-01, 3.684296E-01, 2.537648E-01, 1.683257E-01, 9.333822E-02, 6.107007E-01, 4.719793E-01, 3.046718E-01
+, 2.052922E-01, 1.352384E-01, 7.469570E-02
W2GJ, 9102, 3000, 2.748189E-02, 2.740150E-02, 2.732112E-02, 2.724073E-02, 2.716034E-02, 2.707995E-02
+, 2.596659E-02, 2.588948E-02, 2.581236E-02, 2.573525E-02, 2.565813E-02, 2.558102E-02, 2.351815E-02, 2.344454E-02
+, 2.337094E-02, 2.329734E-02, 2.322373E-02, 2.315013E-02, 2.084684E-02, 2.077696E-02, 2.070708E-02, 2.063720E-02
+, 2.056732E-02, 2.049744E-02, 1.828554E-02, 1.821955E-02, 1.815357E-02, 1.808758E-02, 1.802159E-02, 1.795560E-02
+, 1.591032E-02, 1.584836E-02, 1.578639E-02, 1.572442E-02, 1.566245E-02, 1.560048E-02, 1.372543E-02, 1.366757E-02
+, 1.360971E-02, 1.355184E-02, 1.349398E-02, 1.343612E-02, 1.169300E-02, 1.163930E-02, 1.158559E-02, 1.153189E-02
+, 1.147819E-02, 1.142448E-02
AECORR, 9202, WT2, 3000, 5.547897E-01, 2.839180E-01, 1.926943E-01, 1.376994E-01, 9.415590E-02
+, 5.373882E-02, 5.444923E-01, 2.772927E-01, 1.879520E-01, 1.333495E-01, 9.135416E-02, 5.281352E-02, 5.335255E-01
+, 2.677820E-01, 1.816840E-01, 1.291323E-01, 8.876359E-02, 5.163682E-02, 5.054180E-01, 2.534590E-01, 1.717608E-01
+, 1.220296E-01, 8.390544E-02, 4.884729E-02, 4.759686E-01, 2.414059E-01, 1.628583E-01, 1.150939E-01, 7.878671E-02
+, 4.567080E-02, 4.216812E-01, 2.216987E-01, 1.484977E-01, 1.038231E-01, 7.038568E-02, 4.039119E-02, 3.525922E-01
+, 1.989959E-01, 1.309702E-01, 8.987667E-02, 6.011057E-02, 3.403867E-02, 2.543182E-01, 1.645384E-01, 1.038163E-01
+, 6.990521E-02, 4.649320E-02, 2.619053E-02
W2GJ, 9103, 4000, 2.748782E-02, 2.740742E-02, 2.732701E-02, 2.724661E-02, 2.716620E-02, 2.708580E-02
+, 2.596462E-02, 2.588754E-02, 2.581046E-02, 2.573338E-02, 2.565630E-02, 2.557922E-02, 2.351289E-02, 2.343937E-02
+, 2.336586E-02, 2.329235E-02, 2.321884E-02, 2.314533E-02, 2.083982E-02, 2.077006E-02, 2.070031E-02, 2.063055E-02
+, 2.056079E-02, 2.049103E-02, 1.827718E-02, 1.821132E-02, 1.814546E-02, 1.807960E-02, 1.801374E-02, 1.794788E-02
+, 1.590087E-02, 1.583902E-02, 1.577718E-02, 1.571533E-02, 1.565348E-02, 1.559163E-02, 1.371517E-02, 1.365741E-02
+, 1.359966E-02, 1.354191E-02, 1.348415E-02, 1.342640E-02, 1.168141E-02, 1.162778E-02, 1.157415E-02, 1.152052E-02
+, 1.146688E-02, 1.141325E-02
AECORR, 9203, WT2, 4000, 5.565795E-01, 2.823005E-01, 1.930521E-01, 1.361678E-01, 9.366638E-02
+, 5.522974E-02, 5.454422E-01, 2.761238E-01, 1.877799E-01, 1.334872E-01, 9.152128E-02, 5.289987E-02, 5.234202E-01
+, 2.778638E-01, 1.855475E-01, 1.292912E-01, 8.705480E-02, 4.934675E-02, 4.895445E-01, 2.689913E-01, 1.782706E-01
+, 1.223159E-01, 8.104164E-02, 4.525618E-02, 4.586946E-01, 2.581403E-01, 1.701695E-01, 1.154480E-01, 7.557716E-02
+, 4.175467E-02, 4.049546E-01, 2.380225E-01, 1.555218E-01, 1.040347E-01, 6.722749E-02, 3.671638E-02, 3.363075E-01
+, 2.153820E-01, 1.373836E-01, 8.973184E-02, 5.703875E-02, 3.074043E-02, 2.382889E-01, 1.816554E-01, 1.091096E-01
+, 6.925453E-02, 4.359272E-02, 2.336057E-02
W2GJ, 9104, 5000, 4.960107E-06, 4.985875E-06, 5.011643E-06, 5.037411E-06, 5.063179E-06, 5.088948E-06
+, 1.736263E-06, 1.728672E-06, 1.721081E-06, 1.713490E-06, 1.705899E-06, 1.698307E-06, -3.290472E-06, -3.298800E-06
+, -3.307127E-06, -3.315455E-06, -3.323783E-06, -3.332110E-06, -4.893423E-06, -4.899993E-06, -4.906564E-06, -4.913134E-06
+, -4.919704E-06, -4.926274E-06, -4.673627E-06, -4.678723E-06, -4.683819E-06, -4.688915E-06, -4.694011E-06, -4.699107E-06
+, -4.108569E-06, -4.112653E-06, -4.116737E-06, -4.120820E-06, -4.124904E-06, -4.128987E-06
AECORR, 9204, WT2, 5000, 5.823513E-01, 3.197432E-01, 2.192219E-01, 1.421164E-01, 8.672834E-02
+, 4.367039E-02, 6.705877E-01, 3.490792E-01, 2.253851E-01, 1.483640E-01, 9.298607E-02, 4.906986E-02, 6.924946E-01
+, 3.526616E-01, 2.216872E-01, 1.441384E-01, 9.063478E-02, 4.853935E-02, 6.842049E-01, 3.448885E-01, 2.120547E-01
+, 1.353609E-01, 8.445268E-02, 4.533113E-02, 5.839736E-01, 3.061566E-01, 1.817653E-01, 1.126153E-01, 6.915579E-02
+, 3.688231E-02, 4.370184E-01, 2.553520E-01, 1.397466E-01, 8.337678E-02, 5.063523E-02, 2.692842E-02
$ --------------------------------------------------------------------
ENDDATA
