
$ Validation: Cantilever beam — tip point load (SOL 101)
$ Euler-Bernoulli closed-form: delta_tip = P*L^3 / (3*E*I)
$
$ Geometry:  L = 10 m, 10 equal CBAR elements (1 m each), 11 nodes
$ Material:  Steel — E = 200 GPa, nu = 0.3, rho = 7850 kg/m^3
$ Section:   Solid square, side = 0.31623 m
$              A  = 0.1 m^2
$              I1 = I2 = a^4/12 = 8.333e-4 m^4
$ Load:      P = 1000 N in -Z at tip (node 11)
$ BCs:       Encastre at node 1 (x = 0)
$
$ Expected:  delta_tip = 1000 * 10^3 / (3 * 2e11 * 8.333e-4) = 2.000e-3 m (2.0 mm, -Z)
$ Units:     SI (m, N, kg, Pa)
$
SOL 101
$
SUBCASE 1
  TITLE        = Cantilever Tip Load — Validation
  SPC          = 1
  LOAD         = 10
  DISPLACEMENT = ALL
  SPCFORCE     = ALL
  FORCE        = ALL
  STRESS       = ALL
$
BEGIN BULK
$
$ ------------------------------------------------------------------ NODES
$ GRID, GID, CP, X1,  X2,  X3, CD, PS, SEID
GRID,  1, , 0.0,  0.0, 0.0
GRID,  2, , 1.0,  0.0, 0.0
GRID,  3, , 2.0,  0.0, 0.0
GRID,  4, , 3.0,  0.0, 0.0
GRID,  5, , 4.0,  0.0, 0.0
GRID,  6, , 5.0,  0.0, 0.0
GRID,  7, , 6.0,  0.0, 0.0
GRID,  8, , 7.0,  0.0, 0.0
GRID,  9, , 8.0,  0.0, 0.0
GRID, 10, , 9.0,  0.0, 0.0
GRID, 11, , 10.0, 0.0, 0.0
$
$ --------------------------------------------------------------- MATERIAL
$ MAT1, MID, E,      G,        NU,  RHO
MAT1, 1, 2.0e11, 7.692e10, 0.3, 7850.0
$
$ ------------------------------------------------------------- PROPERTIES
$ PBAR, PID, MID, A,   I1,       I2,       J
$ Solid square: a = 0.31623 m
PBAR, 1, 1, 0.1, 8.333e-4, 8.333e-4, 1.406e-3
$ +,   C1,      C2,       D1,       D2,       E1,        E2,       F1,       F2
+,    0.15811, 0.15811, -0.15811, 0.15811, -0.15811, -0.15811, 0.15811, -0.15811
$
$ --------------------------------------------------------------- ELEMENTS
$ CBAR, EID, PID, GA, GB, X1,  X2,  X3
$ Orientation vector (0,1,0): local y = global Y
CBAR,  1, 1,  1,  2, 0.0, 1.0, 0.0
CBAR,  2, 1,  2,  3, 0.0, 1.0, 0.0
CBAR,  3, 1,  3,  4, 0.0, 1.0, 0.0
CBAR,  4, 1,  4,  5, 0.0, 1.0, 0.0
CBAR,  5, 1,  5,  6, 0.0, 1.0, 0.0
CBAR,  6, 1,  6,  7, 0.0, 1.0, 0.0
CBAR,  7, 1,  7,  8, 0.0, 1.0, 0.0
CBAR,  8, 1,  8,  9, 0.0, 1.0, 0.0
CBAR,  9, 1,  9, 10, 0.0, 1.0, 0.0
CBAR, 10, 1, 10, 11, 0.0, 1.0, 0.0
$
$ ----------------------------------------------------------- CONSTRAINTS
$ SPC1, SID, C,      G
$ Encastre at node 1 — all 6 DOFs fixed
SPC1, 1, 123456, 1
$
$ ------------------------------------------------------------------ LOADS
$ FORCE, SID, GID, CID, F,      N1,  N2,  N3
$ 1 kN tip force in -Z at node 11
FORCE, 10, 11, 0, 1000.0, 0.0, 0.0, -1.0
$
ENDDATA
