$ V16: Simply supported beam under gravity with CONM2 at midspan
$ 10 CBAR elements, L=1.0 m, rho=7850, A=0.05
$ CBAR mass   = 392.5 kg  (rho*A*L)
$ CONM2 mass  =  50.0 kg  (at node 6, x=0.5 m)
$ Total mass  = 442.5 kg
$ Total weight = 442.5 * 9.81 = 4340.925 N in -Y
$ Expected reactions: R_Y1 = R_Y11 = 2170.4625 N (symmetry, CONM2 at midspan)
$ Units: SI (m, N, kg, Pa)
$
SOL 101
$
SUBCASE 1
  TITLE = GRAV with CONM2
  SPC = 1
  LOAD = 20
  DISPLACEMENT = ALL
  SPCFORCE = ALL
  OLOAD = ALL
$
BEGIN BULK
$
$ ------------------------------------------------------------------ NODES
GRID, 1,  , 0.0, 0.0, 0.0
GRID, 2,  , 0.1, 0.0, 0.0
GRID, 3,  , 0.2, 0.0, 0.0
GRID, 4,  , 0.3, 0.0, 0.0
GRID, 5,  , 0.4, 0.0, 0.0
GRID, 6,  , 0.5, 0.0, 0.0
GRID, 7,  , 0.6, 0.0, 0.0
GRID, 8,  , 0.7, 0.0, 0.0
GRID, 9,  , 0.8, 0.0, 0.0
GRID, 10, , 0.9, 0.0, 0.0
GRID, 11, , 1.0, 0.0, 0.0
$
$ --------------------------------------------------------------- MATERIAL
MAT1, 1, 2.0e11, 7.692e10, 0.3, 7850.0
$
$ ------------------------------------------------------------- PROPERTIES
PBAR, 1, 1, 0.05, 8.333e-4, 8.333e-4, 1.406e-3
$
$ --------------------------------------------------------------- ELEMENTS
CBAR, 1,  1, 1,  2,  0.0, 1.0, 0.0
CBAR, 2,  1, 2,  3,  0.0, 1.0, 0.0
CBAR, 3,  1, 3,  4,  0.0, 1.0, 0.0
CBAR, 4,  1, 4,  5,  0.0, 1.0, 0.0
CBAR, 5,  1, 5,  6,  0.0, 1.0, 0.0
CBAR, 6,  1, 6,  7,  0.0, 1.0, 0.0
CBAR, 7,  1, 7,  8,  0.0, 1.0, 0.0
CBAR, 8,  1, 8,  9,  0.0, 1.0, 0.0
CBAR, 9,  1, 9,  10, 0.0, 1.0, 0.0
CBAR, 10, 1, 10, 11, 0.0, 1.0, 0.0
$
$ --------------------------------------------------------------- MASS
$ 50 kg point mass at midspan (node 6, x=0.5 m)
CONM2, 1, 6, 0, 50.0
$
$ ----------------------------------------------------------- CONSTRAINTS
$ Left pin:    fix Tx Ty Tz Rx
SPC1, 1, 1234, 1
$ Right roller: fix Ty Tz Rx
SPC1, 1, 234, 11
$
$ ------------------------------------------------------------------ LOADS
$ 1g in -Y direction
GRAV, 20, 0, 9.81, 0.0, -1.0, 0.0
$
ENDDATA
