SOL 101
SUBCASE 1
  TITLE = RBE2 Lever-Arm Offset
  SPC = 1
  LOAD = 10
  DISPLACEMENT = ALL
BEGIN BULK
$ Grid 1: fixed end
$ Grid 2: CBAR tip (L=1.0), GN of RBE2
$ Grid 3: offset a=0.5 in X from GN, GM of RBE2
GRID, 1, , 0.0, 0.0, 0.0
GRID, 2, , 1.0, 0.0, 0.0
GRID, 3, , 1.5, 0.0, 0.0
$
MAT1, 1, 2.0e11, 7.692e10, 0.3, 7850.0
PBAR, 1, 1, 0.05, 8.333e-4, 8.333e-4, 1.406e-3
CBAR, 1, 1, 1, 2, 0.0, 1.0, 0.0
$
$ RBE2: GN=2, CM=123456, GM=3
RBE2, 1, 2, 123456, 3
$
SPC1, 1, 123456, 1
$ Force 1000 N in +Y applied at GM (grid 3)
FORCE, 10, 3, 0, 1000.0, 0.0, 1.0, 0.0
ENDDATA
