$ V3: Simply supported beam, mid-span load
$ 10 CBAR elements, L=1.0 m, pin at node 1, roller at node 11, load at node 6
$ Units: SI (m, N, kg, Pa)
$
SOL 101
$
SUBCASE 1
  TITLE = Simply Supported Mid-Span Load
  SPC = 1
  LOAD = 10
  DISPLACEMENT = ALL
  SPCFORCE = ALL
  FORCE = ALL
  STRESS = ALL
$
BEGIN BULK
$
$ ------------------------------------------------------------------ NODES
GRID, 1,  , 0.0, 0.0, 0.0
GRID, 2,  , 0.1, 0.0, 0.0
GRID, 3,  , 0.2, 0.0, 0.0
GRID, 4,  , 0.3, 0.0, 0.0
GRID, 5,  , 0.4, 0.0, 0.0
GRID, 6,  , 0.5, 0.0, 0.0
GRID, 7,  , 0.6, 0.0, 0.0
GRID, 8,  , 0.7, 0.0, 0.0
GRID, 9,  , 0.8, 0.0, 0.0
GRID, 10, , 0.9, 0.0, 0.0
GRID, 11, , 1.0, 0.0, 0.0
$
$ --------------------------------------------------------------- MATERIAL
MAT1, 1, 2.0e11, 7.692e10, 0.3, 7850.0
$
$ ------------------------------------------------------------- PROPERTIES
PBAR, 1, 1, 0.05, 8.333e-4, 8.333e-4, 1.406e-3
$
$ --------------------------------------------------------------- ELEMENTS
CBAR, 1,  1, 1,  2,  0.0, 1.0, 0.0
CBAR, 2,  1, 2,  3,  0.0, 1.0, 0.0
CBAR, 3,  1, 3,  4,  0.0, 1.0, 0.0
CBAR, 4,  1, 4,  5,  0.0, 1.0, 0.0
CBAR, 5,  1, 5,  6,  0.0, 1.0, 0.0
CBAR, 6,  1, 6,  7,  0.0, 1.0, 0.0
CBAR, 7,  1, 7,  8,  0.0, 1.0, 0.0
CBAR, 8,  1, 8,  9,  0.0, 1.0, 0.0
CBAR, 9,  1, 9,  10, 0.0, 1.0, 0.0
CBAR, 10, 1, 10, 11, 0.0, 1.0, 0.0
$
$ ----------------------------------------------------------- CONSTRAINTS
$ Left pin: fix Tx, Ty, Tz, Rx
SPC1, 1, 1234, 1
$ Right roller: fix Ty, Tz, Rx (Tx free)
SPC1, 1, 234, 11
$
$ ------------------------------------------------------------------ LOADS
$ 1000 N mid-span force in +Y at node 6 (x=0.5 m)
FORCE, 10, 6, 0, 1000.0, 0.0, 1.0, 0.0
$
ENDDATA
