$ V4: Fixed-fixed beam, nodal UDL approximation
$ 10 CBAR elements, L=1.0 m, encastre at nodes 1 and 11
$ 1000 N applied at each of 9 interior nodes (2-10) = 9000 N total
$ Units: SI (m, N, kg, Pa)
$
SOL 101
$
SUBCASE 1
  TITLE = Fixed-Fixed Nodal UDL
  SPC = 1
  LOAD = 10
  DISPLACEMENT = ALL
  SPCFORCE = ALL
  FORCE = ALL
  STRESS = ALL
$
BEGIN BULK
$
$ ------------------------------------------------------------------ NODES
GRID, 1,  , 0.0, 0.0, 0.0
GRID, 2,  , 0.1, 0.0, 0.0
GRID, 3,  , 0.2, 0.0, 0.0
GRID, 4,  , 0.3, 0.0, 0.0
GRID, 5,  , 0.4, 0.0, 0.0
GRID, 6,  , 0.5, 0.0, 0.0
GRID, 7,  , 0.6, 0.0, 0.0
GRID, 8,  , 0.7, 0.0, 0.0
GRID, 9,  , 0.8, 0.0, 0.0
GRID, 10, , 0.9, 0.0, 0.0
GRID, 11, , 1.0, 0.0, 0.0
$
$ --------------------------------------------------------------- MATERIAL
MAT1, 1, 2.0e11, 7.692e10, 0.3, 7850.0
$
$ ------------------------------------------------------------- PROPERTIES
PBAR, 1, 1, 0.05, 8.333e-4, 8.333e-4, 1.406e-3
$
$ --------------------------------------------------------------- ELEMENTS
CBAR, 1,  1, 1,  2,  0.0, 1.0, 0.0
CBAR, 2,  1, 2,  3,  0.0, 1.0, 0.0
CBAR, 3,  1, 3,  4,  0.0, 1.0, 0.0
CBAR, 4,  1, 4,  5,  0.0, 1.0, 0.0
CBAR, 5,  1, 5,  6,  0.0, 1.0, 0.0
CBAR, 6,  1, 6,  7,  0.0, 1.0, 0.0
CBAR, 7,  1, 7,  8,  0.0, 1.0, 0.0
CBAR, 8,  1, 8,  9,  0.0, 1.0, 0.0
CBAR, 9,  1, 9,  10, 0.0, 1.0, 0.0
CBAR, 10, 1, 10, 11, 0.0, 1.0, 0.0
$
$ ----------------------------------------------------------- CONSTRAINTS
$ Encastre at both ends
SPC1, 1, 123456, 1
SPC1, 1, 123456, 11
$
$ ------------------------------------------------------------------ LOADS
$ 1000 N in +Y at each interior node (2-10); total = 9000 N
FORCE, 10, 2,  0, 1000.0, 0.0, 1.0, 0.0
FORCE, 10, 3,  0, 1000.0, 0.0, 1.0, 0.0
FORCE, 10, 4,  0, 1000.0, 0.0, 1.0, 0.0
FORCE, 10, 5,  0, 1000.0, 0.0, 1.0, 0.0
FORCE, 10, 6,  0, 1000.0, 0.0, 1.0, 0.0
FORCE, 10, 7,  0, 1000.0, 0.0, 1.0, 0.0
FORCE, 10, 8,  0, 1000.0, 0.0, 1.0, 0.0
FORCE, 10, 9,  0, 1000.0, 0.0, 1.0, 0.0
FORCE, 10, 10, 0, 1000.0, 0.0, 1.0, 0.0
$
ENDDATA
