$ V6: Free-free beam, normal modes
$ 10 CBAR elements, L=1.0 m, no constraints
$ First 6 modes must be near-zero (rigid body)
$ Units: SI (m, N, kg, Pa)
$
SOL 103
$
SUBCASE 1
  TITLE = Free-Free Normal Modes
  METHOD = 20
$
BEGIN BULK
$
$ ------------------------------------------------------------------ NODES
GRID, 1,  , 0.0, 0.0, 0.0
GRID, 2,  , 0.1, 0.0, 0.0
GRID, 3,  , 0.2, 0.0, 0.0
GRID, 4,  , 0.3, 0.0, 0.0
GRID, 5,  , 0.4, 0.0, 0.0
GRID, 6,  , 0.5, 0.0, 0.0
GRID, 7,  , 0.6, 0.0, 0.0
GRID, 8,  , 0.7, 0.0, 0.0
GRID, 9,  , 0.8, 0.0, 0.0
GRID, 10, , 0.9, 0.0, 0.0
GRID, 11, , 1.0, 0.0, 0.0
$
$ --------------------------------------------------------------- MATERIAL
MAT1, 1, 2.0e11, 7.692e10, 0.3, 7850.0
$
$ ------------------------------------------------------------- PROPERTIES
PBAR, 1, 1, 0.05, 8.333e-4, 8.333e-4, 1.406e-3
$
$ --------------------------------------------------------------- ELEMENTS
CBAR, 1,  1, 1,  2,  0.0, 1.0, 0.0
CBAR, 2,  1, 2,  3,  0.0, 1.0, 0.0
CBAR, 3,  1, 3,  4,  0.0, 1.0, 0.0
CBAR, 4,  1, 4,  5,  0.0, 1.0, 0.0
CBAR, 5,  1, 5,  6,  0.0, 1.0, 0.0
CBAR, 6,  1, 6,  7,  0.0, 1.0, 0.0
CBAR, 7,  1, 7,  8,  0.0, 1.0, 0.0
CBAR, 8,  1, 8,  9,  0.0, 1.0, 0.0
CBAR, 9,  1, 9,  10, 0.0, 1.0, 0.0
CBAR, 10, 1, 10, 11, 0.0, 1.0, 0.0
$
$ --------------------------------------------------------- EIGENVALUE
$ EIGRL: sid=20, nd=10, MASS normalisation
EIGRL, 20, , , 10, , , , MASS
$
ENDDATA
